<?xml version="1.0" encoding="UTF-8"?>

<!-- generated on 2022-07-15 13:56:25 by Eclipse SUMO netedit Version 1.12.0
<configuration xmlns:xsi="http://www.w3.org/2001/XMLSchema-instance" xsi:noNamespaceSchemaLocation="http://sumo.dlr.de/xsd/netconvertConfiguration.xsd">

    <input>
        <sumo-net-file value="C:\workplace\sumo-test\sumo-pravega-flink-demo\config\net.net.xml"/>
    </input>

    <output>
        <output-file value="C:\workplace\sumo-test\sumo-pravega-flink-demo\config\net.net.xml"/>
    </output>

    <processing>
        <geometry.min-radius.fix.railways value="false"/>
        <geometry.max-grade.fix value="false"/>
        <offset.disable-normalization value="true"/>
        <lefthand value="false"/>
    </processing>

    <junctions>
        <no-turnarounds value="true"/>
        <junctions.corner-detail value="5"/>
        <junctions.limit-turn-speed value="5.5"/>
        <rectangular-lane-cut value="false"/>
    </junctions>

    <pedestrian>
        <walkingareas value="false"/>
    </pedestrian>

    <report>
        <aggregate-warnings value="5"/>
    </report>

</configuration>
-->

<net version="1.9" junctionCornerDetail="5" limitTurnSpeed="5.50" xmlns:xsi="http://www.w3.org/2001/XMLSchema-instance" xsi:noNamespaceSchemaLocation="http://sumo.dlr.de/xsd/net_file.xsd">

    <location netOffset="0.00,0.00" convBoundary="0.00,0.00,200.00,200.00" origBoundary="0.00,0.00,200.00,200.00" projParameter="!"/>

    <edge id=":Bund_Center_0" function="internal">
        <lane id=":Bund_Center_0_0" index="0" speed="6.51" length="9.03" shape="198.40,107.20 198.05,104.75 197.00,103.00 195.25,101.95 192.80,101.60"/>
    </edge>
    <edge id=":Bund_Center_1" function="internal">
        <lane id=":Bund_Center_1_0" index="0" speed="13.89" length="14.40" shape="198.40,107.20 198.40,92.80"/>
    </edge>
    <edge id=":Bund_Center_2" function="internal">
        <lane id=":Bund_Center_2_0" index="0" speed="13.89" length="14.40" shape="201.60,92.80 201.60,107.20"/>
    </edge>
    <edge id=":Bund_Center_3" function="internal">
        <lane id=":Bund_Center_3_0" index="0" speed="8.00" length="4.07" shape="201.60,92.80 201.05,96.65 200.96,96.80"/>
    </edge>
    <edge id=":Bund_Center_6" function="internal">
        <lane id=":Bund_Center_6_0" index="0" speed="8.00" length="10.13" shape="200.96,96.80 199.40,99.40 196.65,101.05 192.80,101.60"/>
    </edge>
    <edge id=":Bund_Center_4" function="internal">
        <lane id=":Bund_Center_4_0" index="0" speed="6.51" length="9.03" shape="192.80,98.40 195.25,98.05 197.00,97.00 198.05,95.25 198.40,92.80"/>
    </edge>
    <edge id=":Bund_Center_5" function="internal">
        <lane id=":Bund_Center_5_0" index="0" speed="8.00" length="14.19" shape="192.80,98.40 196.65,98.95 199.40,100.60 201.05,103.35 201.60,107.20"/>
    </edge>
    <edge id=":Daimaru_0" function="internal">
        <lane id=":Daimaru_0_0" index="0" speed="6.08" length="7.74" shape="201.60,196.80 201.30,198.90 200.40,200.40 198.90,201.30 196.80,201.60"/>
    </edge>
    <edge id=":Daimaru_1" function="internal">
        <lane id=":Daimaru_1_0" index="0" speed="3.90" length="2.58" shape="196.80,198.40 197.50,198.30 198.00,198.00 198.30,197.50 198.40,196.80"/>
    </edge>
    <edge id=":Great_World_0" function="internal">
        <lane id=":Great_World_0_0" index="0" speed="6.51" length="9.03" shape="98.40,7.20 98.05,4.75 97.00,3.00 95.25,1.95 92.80,1.60"/>
    </edge>
    <edge id=":Great_World_1" function="internal">
        <lane id=":Great_World_1_0" index="0" speed="8.00" length="14.19" shape="98.40,7.20 98.95,3.35 100.60,0.60 103.35,-1.05 107.20,-1.60"/>
    </edge>
    <edge id=":Great_World_2" function="internal">
        <lane id=":Great_World_2_0" index="0" speed="6.51" length="9.03" shape="107.20,1.60 104.75,1.95 103.00,3.00 101.95,4.75 101.60,7.20"/>
    </edge>
    <edge id=":Great_World_3" function="internal">
        <lane id=":Great_World_3_0" index="0" speed="13.89" length="14.40" shape="107.20,1.60 92.80,1.60"/>
    </edge>
    <edge id=":Great_World_4" function="internal">
        <lane id=":Great_World_4_0" index="0" speed="13.89" length="14.40" shape="92.80,-1.60 107.20,-1.60"/>
    </edge>
    <edge id=":Great_World_5" function="internal">
        <lane id=":Great_World_5_0" index="0" speed="8.00" length="4.07" shape="92.80,-1.60 96.65,-1.05 96.80,-0.96"/>
    </edge>
    <edge id=":Great_World_6" function="internal">
        <lane id=":Great_World_6_0" index="0" speed="8.00" length="10.13" shape="96.80,-0.96 99.40,0.60 101.05,3.35 101.60,7.20"/>
    </edge>
    <edge id=":Huashan_Hospital_0" function="internal">
        <lane id=":Huashan_Hospital_0_0" index="0" speed="13.89" length="14.40" shape="-1.60,107.20 -1.60,92.80"/>
    </edge>
    <edge id=":Huashan_Hospital_1" function="internal">
        <lane id=":Huashan_Hospital_1_0" index="0" speed="8.00" length="4.07" shape="-1.60,107.20 -1.05,103.35 -0.96,103.20"/>
    </edge>
    <edge id=":Huashan_Hospital_6" function="internal">
        <lane id=":Huashan_Hospital_6_0" index="0" speed="8.00" length="10.13" shape="-0.96,103.20 0.60,100.60 3.35,98.95 7.20,98.40"/>
    </edge>
    <edge id=":Huashan_Hospital_2" function="internal">
        <lane id=":Huashan_Hospital_2_0" index="0" speed="6.51" length="9.03" shape="7.20,101.60 4.75,101.95 3.00,103.00 1.95,104.75 1.60,107.20"/>
    </edge>
    <edge id=":Huashan_Hospital_3" function="internal">
        <lane id=":Huashan_Hospital_3_0" index="0" speed="8.00" length="14.19" shape="7.20,101.60 3.35,101.05 0.60,99.40 -1.05,96.65 -1.60,92.80"/>
    </edge>
    <edge id=":Huashan_Hospital_4" function="internal">
        <lane id=":Huashan_Hospital_4_0" index="0" speed="6.51" length="9.03" shape="1.60,92.80 1.95,95.25 3.00,97.00 4.75,98.05 7.20,98.40"/>
    </edge>
    <edge id=":Huashan_Hospital_5" function="internal">
        <lane id=":Huashan_Hospital_5_0" index="0" speed="13.89" length="14.40" shape="1.60,92.80 1.60,107.20"/>
    </edge>
    <edge id=":Jingan_Temple_0" function="internal">
        <lane id=":Jingan_Temple_0_0" index="0" speed="6.08" length="7.74" shape="3.20,201.60 1.10,201.30 -0.40,200.40 -1.30,198.90 -1.60,196.80"/>
    </edge>
    <edge id=":Jingan_Temple_1" function="internal">
        <lane id=":Jingan_Temple_1_0" index="0" speed="3.90" length="2.58" shape="1.60,196.80 1.70,197.50 2.00,198.00 2.50,198.30 3.20,198.40"/>
    </edge>
    <edge id=":People_Square_0" function="internal">
        <lane id=":People_Square_0_0" index="0" speed="13.89" length="14.40" shape="107.20,201.60 92.80,201.60"/>
    </edge>
    <edge id=":People_Square_1" function="internal">
        <lane id=":People_Square_1_0" index="0" speed="8.00" length="4.07" shape="107.20,201.60 103.35,201.05 103.20,200.96"/>
    </edge>
    <edge id=":People_Square_6" function="internal">
        <lane id=":People_Square_6_0" index="0" speed="8.00" length="10.13" shape="103.20,200.96 100.60,199.40 98.95,196.65 98.40,192.80"/>
    </edge>
    <edge id=":People_Square_2" function="internal">
        <lane id=":People_Square_2_0" index="0" speed="6.51" length="9.03" shape="101.60,192.80 101.95,195.25 103.00,197.00 104.75,198.05 107.20,198.40"/>
    </edge>
    <edge id=":People_Square_3" function="internal">
        <lane id=":People_Square_3_0" index="0" speed="8.00" length="14.19" shape="101.60,192.80 101.05,196.65 99.40,199.40 96.65,201.05 92.80,201.60"/>
    </edge>
    <edge id=":People_Square_4" function="internal">
        <lane id=":People_Square_4_0" index="0" speed="6.51" length="9.03" shape="92.80,198.40 95.25,198.05 97.00,197.00 98.05,195.25 98.40,192.80"/>
    </edge>
    <edge id=":People_Square_5" function="internal">
        <lane id=":People_Square_5_0" index="0" speed="13.89" length="14.40" shape="92.80,198.40 107.20,198.40"/>
    </edge>
    <edge id=":Shanghai_Concert_Hall_0" function="internal">
        <lane id=":Shanghai_Concert_Hall_0_0" index="0" speed="6.51" length="9.03" shape="98.40,107.20 98.05,104.75 97.00,103.00 95.25,101.95 92.80,101.60"/>
    </edge>
    <edge id=":Shanghai_Concert_Hall_1" function="internal">
        <lane id=":Shanghai_Concert_Hall_1_0" index="0" speed="13.89" length="14.40" shape="98.40,107.20 98.40,92.80"/>
    </edge>
    <edge id=":Shanghai_Concert_Hall_2" function="internal">
        <lane id=":Shanghai_Concert_Hall_2_0" index="0" speed="8.00" length="4.07" shape="98.40,107.20 98.95,103.35 99.04,103.20"/>
    </edge>
    <edge id=":Shanghai_Concert_Hall_12" function="internal">
        <lane id=":Shanghai_Concert_Hall_12_0" index="0" speed="8.00" length="10.13" shape="99.04,103.20 100.60,100.60 103.35,98.95 107.20,98.40"/>
    </edge>
    <edge id=":Shanghai_Concert_Hall_3" function="internal">
        <lane id=":Shanghai_Concert_Hall_3_0" index="0" speed="6.51" length="9.03" shape="107.20,101.60 104.75,101.95 103.00,103.00 101.95,104.75 101.60,107.20"/>
    </edge>
    <edge id=":Shanghai_Concert_Hall_4" function="internal">
        <lane id=":Shanghai_Concert_Hall_4_0" index="0" speed="13.89" length="14.40" shape="107.20,101.60 92.80,101.60"/>
    </edge>
    <edge id=":Shanghai_Concert_Hall_5" function="internal">
        <lane id=":Shanghai_Concert_Hall_5_0" index="0" speed="8.00" length="14.19" shape="107.20,101.60 103.35,101.05 100.60,99.40 98.95,96.65 98.40,92.80"/>
    </edge>
    <edge id=":Shanghai_Concert_Hall_6" function="internal">
        <lane id=":Shanghai_Concert_Hall_6_0" index="0" speed="6.51" length="9.03" shape="101.60,92.80 101.95,95.25 103.00,97.00 104.75,98.05 107.20,98.40"/>
    </edge>
    <edge id=":Shanghai_Concert_Hall_7" function="internal">
        <lane id=":Shanghai_Concert_Hall_7_0" index="0" speed="13.89" length="14.40" shape="101.60,92.80 101.60,107.20"/>
    </edge>
    <edge id=":Shanghai_Concert_Hall_8" function="internal">
        <lane id=":Shanghai_Concert_Hall_8_0" index="0" speed="8.00" length="4.07" shape="101.60,92.80 101.05,96.65 100.96,96.80"/>
    </edge>
    <edge id=":Shanghai_Concert_Hall_13" function="internal">
        <lane id=":Shanghai_Concert_Hall_13_0" index="0" speed="8.00" length="10.13" shape="100.96,96.80 99.40,99.40 96.65,101.05 92.80,101.60"/>
    </edge>
    <edge id=":Shanghai_Concert_Hall_9" function="internal">
        <lane id=":Shanghai_Concert_Hall_9_0" index="0" speed="6.51" length="9.03" shape="92.80,98.40 95.25,98.05 97.00,97.00 98.05,95.25 98.40,92.80"/>
    </edge>
    <edge id=":Shanghai_Concert_Hall_10" function="internal">
        <lane id=":Shanghai_Concert_Hall_10_0" index="0" speed="13.89" length="14.40" shape="92.80,98.40 107.20,98.40"/>
    </edge>
    <edge id=":Shanghai_Concert_Hall_11" function="internal">
        <lane id=":Shanghai_Concert_Hall_11_0" index="0" speed="8.00" length="14.19" shape="92.80,98.40 96.65,98.95 99.40,100.60 101.05,103.35 101.60,107.20"/>
    </edge>
    <edge id=":Shanghai_LIbrary_0" function="internal">
        <lane id=":Shanghai_LIbrary_0_0" index="0" speed="6.08" length="7.74" shape="-1.60,3.20 -1.30,1.10 -0.40,-0.40 1.10,-1.30 3.20,-1.60"/>
    </edge>
    <edge id=":Shanghai_LIbrary_1" function="internal">
        <lane id=":Shanghai_LIbrary_1_0" index="0" speed="3.90" length="2.58" shape="3.20,1.60 2.50,1.70 2.00,2.00 1.70,2.50 1.60,3.20"/>
    </edge>
    <edge id=":Yu_Garden_0" function="internal">
        <lane id=":Yu_Garden_0_0" index="0" speed="3.90" length="2.58" shape="198.40,3.20 198.30,2.50 198.00,2.00 197.50,1.70 196.80,1.60"/>
    </edge>
    <edge id=":Yu_Garden_1" function="internal">
        <lane id=":Yu_Garden_1_0" index="0" speed="6.08" length="7.74" shape="196.80,-1.60 198.90,-1.30 200.40,-0.40 201.30,1.10 201.60,3.20"/>
    </edge>

    <edge id="Henan_Rd_M(northward)" from="Bund_Center" to="Daimaru" priority="-1">
        <lane id="Henan_Rd_M(northward)_0" index="0" speed="13.89" length="89.60" shape="201.60,107.20 201.60,196.80"/>
    </edge>
    <edge id="Henan_Rd_M(southward)" from="Daimaru" to="Bund_Center" priority="-1">
        <lane id="Henan_Rd_M(southward)_0" index="0" speed="13.89" length="89.60" shape="198.40,196.80 198.40,107.20"/>
    </edge>
    <edge id="Henan_Rd_S(northward)" from="Yu_Garden" to="Bund_Center" priority="-1">
        <lane id="Henan_Rd_S(northward)_0" index="0" speed="13.89" length="89.60" shape="201.60,3.20 201.60,92.80"/>
    </edge>
    <edge id="Henan_Rd_S(southward)" from="Bund_Center" to="Yu_Garden" priority="-1">
        <lane id="Henan_Rd_S(southward)_0" index="0" speed="13.89" length="89.60" shape="198.40,92.80 198.40,3.20"/>
    </edge>
    <edge id="Huaihai_Rd_E(eastward)" from="Great_World" to="Yu_Garden" priority="-1">
        <lane id="Huaihai_Rd_E(eastward)_0" index="0" speed="13.89" length="89.60" shape="107.20,-1.60 196.80,-1.60"/>
    </edge>
    <edge id="Huaihai_Rd_E(westward)" from="Yu_Garden" to="Great_World" priority="-1">
        <lane id="Huaihai_Rd_E(westward)_0" index="0" speed="13.89" length="89.60" shape="196.80,1.60 107.20,1.60"/>
    </edge>
    <edge id="Huaihai_Rd_M(eastward)" from="Shanghai_LIbrary" to="Great_World" priority="-1">
        <lane id="Huaihai_Rd_M(eastward)_0" index="0" speed="13.89" length="89.60" shape="3.20,-1.60 92.80,-1.60"/>
    </edge>
    <edge id="Huaihai_Rd_M(westward)" from="Great_World" to="Shanghai_LIbrary" priority="-1">
        <lane id="Huaihai_Rd_M(westward)_0" index="0" speed="13.89" length="89.60" shape="92.80,1.60 3.20,1.60"/>
    </edge>
    <edge id="Nanjing_Rd_E(eastward)" from="People_Square" to="Daimaru" priority="-1">
        <lane id="Nanjing_Rd_E(eastward)_0" index="0" speed="13.89" length="89.60" shape="107.20,198.40 196.80,198.40"/>
    </edge>
    <edge id="Nanjing_Rd_E(westward)" from="Daimaru" to="People_Square" priority="-1">
        <lane id="Nanjing_Rd_E(westward)_0" index="0" speed="13.89" length="89.60" shape="196.80,201.60 107.20,201.60"/>
    </edge>
    <edge id="Nanjing_Rd_W(eastward)" from="Jingan_Temple" to="People_Square" priority="-1">
        <lane id="Nanjing_Rd_W(eastward)_0" index="0" speed="13.89" length="89.60" shape="3.20,198.40 92.80,198.40"/>
    </edge>
    <edge id="Nanjing_Rd_W(westward)" from="People_Square" to="Jingan_Temple" priority="-1">
        <lane id="Nanjing_Rd_W(westward)_0" index="0" speed="13.89" length="89.60" shape="92.80,201.60 3.20,201.60"/>
    </edge>
    <edge id="Tibet_Rd_M(northward)" from="Shanghai_Concert_Hall" to="People_Square" priority="-1">
        <lane id="Tibet_Rd_M(northward)_0" index="0" speed="13.89" length="85.60" shape="101.60,107.20 101.60,192.80"/>
    </edge>
    <edge id="Tibet_Rd_M(southward)" from="People_Square" to="Shanghai_Concert_Hall" priority="-1">
        <lane id="Tibet_Rd_M(southward)_0" index="0" speed="13.89" length="85.60" shape="98.40,192.80 98.40,107.20"/>
    </edge>
    <edge id="Tibet_Rd_S(northward)" from="Great_World" to="Shanghai_Concert_Hall" priority="-1">
        <lane id="Tibet_Rd_S(northward)_0" index="0" speed="13.89" length="85.60" shape="101.60,7.20 101.60,92.80"/>
    </edge>
    <edge id="Tibet_Rd_S(southward)" from="Shanghai_Concert_Hall" to="Great_World" priority="-1">
        <lane id="Tibet_Rd_S(southward)_0" index="0" speed="13.89" length="85.60" shape="98.40,92.80 98.40,7.20"/>
    </edge>
    <edge id="Urumqi_Rd_M(northward)" from="Huashan_Hospital" to="Jingan_Temple" priority="-1">
        <lane id="Urumqi_Rd_M(northward)_0" index="0" speed="13.89" length="89.60" shape="1.60,107.20 1.60,196.80"/>
    </edge>
    <edge id="Urumqi_Rd_M(southward)" from="Jingan_Temple" to="Huashan_Hospital" priority="-1">
        <lane id="Urumqi_Rd_M(southward)_0" index="0" speed="13.89" length="89.60" shape="-1.60,196.80 -1.60,107.20"/>
    </edge>
    <edge id="Urumqi_Rd_S(northward)" from="Shanghai_LIbrary" to="Huashan_Hospital" priority="-1">
        <lane id="Urumqi_Rd_S(northward)_0" index="0" speed="13.89" length="89.60" shape="1.60,3.20 1.60,92.80"/>
    </edge>
    <edge id="Urumqi_Rd_S(southward)" from="Huashan_Hospital" to="Shanghai_LIbrary" priority="-1">
        <lane id="Urumqi_Rd_S(southward)_0" index="0" speed="13.89" length="89.60" shape="-1.60,92.80 -1.60,3.20"/>
    </edge>
    <edge id="Yanan_Rd_E(eastward)" from="Shanghai_Concert_Hall" to="Bund_Center" priority="-1">
        <lane id="Yanan_Rd_E(eastward)_0" index="0" speed="13.89" length="85.60" shape="107.20,98.40 192.80,98.40"/>
    </edge>
    <edge id="Yanan_Rd_E(westward)" from="Bund_Center" to="Shanghai_Concert_Hall" priority="-1">
        <lane id="Yanan_Rd_E(westward)_0" index="0" speed="13.89" length="85.60" shape="192.80,101.60 107.20,101.60"/>
    </edge>
    <edge id="Yanan_Rd_W(eastward)" from="Huashan_Hospital" to="Shanghai_Concert_Hall" priority="-1">
        <lane id="Yanan_Rd_W(eastward)_0" index="0" speed="13.89" length="85.60" shape="7.20,98.40 92.80,98.40"/>
    </edge>
    <edge id="Yanan_Rd_W(westward)" from="Shanghai_Concert_Hall" to="Huashan_Hospital" priority="-1">
        <lane id="Yanan_Rd_W(westward)_0" index="0" speed="13.89" length="85.60" shape="92.80,101.60 7.20,101.60"/>
    </edge>

    <junction id="Bund_Center" type="priority" x="200.00" y="100.00" incLanes="Henan_Rd_M(southward)_0 Henan_Rd_S(northward)_0 Yanan_Rd_E(eastward)_0" intLanes=":Bund_Center_0_0 :Bund_Center_1_0 :Bund_Center_2_0 :Bund_Center_6_0 :Bund_Center_4_0 :Bund_Center_5_0" shape="196.80,107.20 203.20,107.20 203.20,92.80 196.80,92.80 196.36,95.02 195.80,95.80 195.02,96.36 194.02,96.69 192.80,96.80 192.80,103.20 195.02,103.64 195.80,104.20 196.36,104.98 196.69,105.98">
        <request index="0" response="000000" foes="001000" cont="0"/>
        <request index="1" response="000000" foes="111000" cont="0"/>
        <request index="2" response="000000" foes="100000" cont="0"/>
        <request index="3" response="000011" foes="100011" cont="1"/>
        <request index="4" response="000010" foes="000010" cont="0"/>
        <request index="5" response="001110" foes="001110" cont="0"/>
    </junction>
    <junction id="Daimaru" type="priority" x="200.00" y="200.00" incLanes="Henan_Rd_M(northward)_0 Nanjing_Rd_E(eastward)_0" intLanes=":Daimaru_0_0 :Daimaru_1_0" shape="203.20,196.80 196.80,196.80 196.80,203.20 200.36,202.49 201.60,201.60 202.49,200.36 203.02,198.76">
        <request index="0" response="00" foes="00" cont="0"/>
        <request index="1" response="00" foes="00" cont="0"/>
    </junction>
    <junction id="Great_World" type="priority" x="100.00" y="0.00" incLanes="Tibet_Rd_S(southward)_0 Huaihai_Rd_E(westward)_0 Huaihai_Rd_M(eastward)_0" intLanes=":Great_World_0_0 :Great_World_1_0 :Great_World_2_0 :Great_World_3_0 :Great_World_4_0 :Great_World_6_0" shape="96.80,7.20 103.20,7.20 103.64,4.98 104.20,4.20 104.98,3.64 105.98,3.31 107.20,3.20 107.20,-3.20 92.80,-3.20 92.80,3.20 95.02,3.64 95.80,4.20 96.36,4.98 96.69,5.98">
        <request index="0" response="001000" foes="001000" cont="0"/>
        <request index="1" response="111000" foes="111000" cont="0"/>
        <request index="2" response="000000" foes="100000" cont="0"/>
        <request index="3" response="000000" foes="100011" cont="0"/>
        <request index="4" response="000000" foes="000010" cont="0"/>
        <request index="5" response="001100" foes="001110" cont="1"/>
    </junction>
    <junction id="Huashan_Hospital" type="priority" x="0.00" y="100.00" incLanes="Urumqi_Rd_M(southward)_0 Yanan_Rd_W(westward)_0 Urumqi_Rd_S(northward)_0" intLanes=":Huashan_Hospital_0_0 :Huashan_Hospital_6_0 :Huashan_Hospital_2_0 :Huashan_Hospital_3_0 :Huashan_Hospital_4_0 :Huashan_Hospital_5_0" shape="-3.20,107.20 3.20,107.20 3.64,104.98 4.20,104.20 4.98,103.64 5.98,103.31 7.20,103.20 7.20,96.80 4.98,96.36 4.20,95.80 3.64,95.02 3.31,94.02 3.20,92.80 -3.20,92.80">
        <request index="0" response="000000" foes="001000" cont="0"/>
        <request index="1" response="110000" foes="111000" cont="1"/>
        <request index="2" response="100000" foes="100000" cont="0"/>
        <request index="3" response="100011" foes="100011" cont="0"/>
        <request index="4" response="000000" foes="000010" cont="0"/>
        <request index="5" response="000000" foes="001110" cont="0"/>
    </junction>
    <junction id="Jingan_Temple" type="priority" x="0.00" y="200.00" incLanes="Nanjing_Rd_W(westward)_0 Urumqi_Rd_M(northward)_0" intLanes=":Jingan_Temple_0_0 :Jingan_Temple_1_0" shape="3.20,203.20 3.20,196.80 -3.20,196.80 -2.49,200.36 -1.60,201.60 -0.36,202.49 1.24,203.02">
        <request index="0" response="00" foes="00" cont="0"/>
        <request index="1" response="00" foes="00" cont="0"/>
    </junction>
    <junction id="People_Square" type="priority" x="100.00" y="200.00" incLanes="Nanjing_Rd_E(westward)_0 Tibet_Rd_M(northward)_0 Nanjing_Rd_W(eastward)_0" intLanes=":People_Square_0_0 :People_Square_6_0 :People_Square_2_0 :People_Square_3_0 :People_Square_4_0 :People_Square_5_0" shape="107.20,203.20 107.20,196.80 104.98,196.36 104.20,195.80 103.64,195.02 103.31,194.02 103.20,192.80 96.80,192.80 96.36,195.02 95.80,195.80 95.02,196.36 94.02,196.69 92.80,196.80 92.80,203.20">
        <request index="0" response="000000" foes="001000" cont="0"/>
        <request index="1" response="110000" foes="111000" cont="1"/>
        <request index="2" response="100000" foes="100000" cont="0"/>
        <request index="3" response="100011" foes="100011" cont="0"/>
        <request index="4" response="000000" foes="000010" cont="0"/>
        <request index="5" response="000000" foes="001110" cont="0"/>
    </junction>
    <junction id="Shanghai_Concert_Hall" type="priority" x="100.00" y="100.00" incLanes="Tibet_Rd_M(southward)_0 Yanan_Rd_E(westward)_0 Tibet_Rd_S(northward)_0 Yanan_Rd_W(eastward)_0" intLanes=":Shanghai_Concert_Hall_0_0 :Shanghai_Concert_Hall_1_0 :Shanghai_Concert_Hall_12_0 :Shanghai_Concert_Hall_3_0 :Shanghai_Concert_Hall_4_0 :Shanghai_Concert_Hall_5_0 :Shanghai_Concert_Hall_6_0 :Shanghai_Concert_Hall_7_0 :Shanghai_Concert_Hall_13_0 :Shanghai_Concert_Hall_9_0 :Shanghai_Concert_Hall_10_0 :Shanghai_Concert_Hall_11_0" shape="96.80,107.20 103.20,107.20 103.64,104.98 104.20,104.20 104.98,103.64 105.98,103.31 107.20,103.20 107.20,96.80 104.98,96.36 104.20,95.80 103.64,95.02 103.31,94.02 103.20,92.80 96.80,92.80 96.36,95.02 95.80,95.80 95.02,96.36 94.02,96.69 92.80,96.80 92.80,103.20 95.02,103.64 95.80,104.20 96.36,104.98 96.69,105.98">
        <request index="0"  response="000000000000" foes="000100010000" cont="0"/>
        <request index="1"  response="000000000000" foes="111100110000" cont="0"/>
        <request index="2"  response="000111000000" foes="110111110000" cont="1"/>
        <request index="3"  response="000010000000" foes="100010000000" cont="0"/>
        <request index="4"  response="000110000111" foes="100110000111" cont="0"/>
        <request index="5"  response="111110000110" foes="111110000110" cont="0"/>
        <request index="6"  response="000000000000" foes="010000000100" cont="0"/>
        <request index="7"  response="000000000000" foes="110000111100" cont="0"/>
        <request index="8"  response="000000000011" foes="110000110111" cont="1"/>
        <request index="9"  response="000000000010" foes="000000100010" cont="0"/>
        <request index="10" response="000111000110" foes="000111100110" cont="0"/>
        <request index="11" response="000110011110" foes="000110111110" cont="0"/>
    </junction>
    <junction id="Shanghai_LIbrary" type="priority" x="0.00" y="0.00" incLanes="Urumqi_Rd_S(southward)_0 Huaihai_Rd_M(westward)_0" intLanes=":Shanghai_LIbrary_0_0 :Shanghai_LIbrary_1_0" shape="-3.20,3.20 3.20,3.20 3.20,-3.20 -0.36,-2.49 -1.60,-1.60 -2.49,-0.36 -3.02,1.24">
        <request index="0" response="00" foes="00" cont="0"/>
        <request index="1" response="00" foes="00" cont="0"/>
    </junction>
    <junction id="Yu_Garden" type="priority" x="200.00" y="0.00" incLanes="Henan_Rd_S(southward)_0 Huaihai_Rd_E(eastward)_0" intLanes=":Yu_Garden_0_0 :Yu_Garden_1_0" shape="196.80,3.20 203.20,3.20 202.49,-0.36 201.60,-1.60 200.36,-2.49 198.76,-3.02 196.80,-3.20">
        <request index="0" response="00" foes="00" cont="0"/>
        <request index="1" response="00" foes="00" cont="0"/>
    </junction>

    <junction id=":Bund_Center_6_0" type="internal" x="200.96" y="96.80" incLanes=":Bund_Center_3_0 Henan_Rd_M(southward)_0" intLanes=":Bund_Center_0_0 :Bund_Center_1_0 :Bund_Center_5_0"/>
    <junction id=":Great_World_6_0" type="internal" x="96.80" y="-0.96" incLanes=":Great_World_5_0 Huaihai_Rd_E(westward)_0" intLanes=":Great_World_1_0 :Great_World_2_0 :Great_World_3_0"/>
    <junction id=":Huashan_Hospital_6_0" type="internal" x="-0.96" y="103.20" incLanes=":Huashan_Hospital_1_0 Urumqi_Rd_S(northward)_0" intLanes=":Huashan_Hospital_3_0 :Huashan_Hospital_4_0 :Huashan_Hospital_5_0"/>
    <junction id=":People_Square_6_0" type="internal" x="103.20" y="200.96" incLanes=":People_Square_1_0 Nanjing_Rd_W(eastward)_0" intLanes=":People_Square_3_0 :People_Square_4_0 :People_Square_5_0"/>
    <junction id=":Shanghai_Concert_Hall_12_0" type="internal" x="99.04" y="103.20" incLanes=":Shanghai_Concert_Hall_2_0 Tibet_Rd_S(northward)_0" intLanes=":Shanghai_Concert_Hall_4_0 :Shanghai_Concert_Hall_5_0 :Shanghai_Concert_Hall_6_0 :Shanghai_Concert_Hall_7_0 :Shanghai_Concert_Hall_10_0 :Shanghai_Concert_Hall_11_0"/>
    <junction id=":Shanghai_Concert_Hall_13_0" type="internal" x="100.96" y="96.80" incLanes=":Shanghai_Concert_Hall_8_0 Tibet_Rd_M(southward)_0" intLanes=":Shanghai_Concert_Hall_0_0 :Shanghai_Concert_Hall_1_0 :Shanghai_Concert_Hall_4_0 :Shanghai_Concert_Hall_5_0 :Shanghai_Concert_Hall_10_0 :Shanghai_Concert_Hall_11_0"/>

    <connection from="Henan_Rd_M(northward)" to="Nanjing_Rd_E(westward)" fromLane="0" toLane="0" via=":Daimaru_0_0" dir="l" state="M"/>
    <connection from="Henan_Rd_M(southward)" to="Yanan_Rd_E(westward)" fromLane="0" toLane="0" via=":Bund_Center_0_0" dir="r" state="M"/>
    <connection from="Henan_Rd_M(southward)" to="Henan_Rd_S(southward)" fromLane="0" toLane="0" via=":Bund_Center_1_0" dir="s" state="M"/>
    <connection from="Henan_Rd_S(northward)" to="Henan_Rd_M(northward)" fromLane="0" toLane="0" via=":Bund_Center_2_0" dir="s" state="M"/>
    <connection from="Henan_Rd_S(northward)" to="Yanan_Rd_E(westward)" fromLane="0" toLane="0" via=":Bund_Center_3_0" dir="l" state="m"/>
    <connection from="Henan_Rd_S(southward)" to="Huaihai_Rd_E(westward)" fromLane="0" toLane="0" via=":Yu_Garden_0_0" dir="r" state="M"/>
    <connection from="Huaihai_Rd_E(eastward)" to="Henan_Rd_S(northward)" fromLane="0" toLane="0" via=":Yu_Garden_1_0" dir="l" state="M"/>
    <connection from="Huaihai_Rd_E(westward)" to="Tibet_Rd_S(northward)" fromLane="0" toLane="0" via=":Great_World_2_0" dir="r" state="M"/>
    <connection from="Huaihai_Rd_E(westward)" to="Huaihai_Rd_M(westward)" fromLane="0" toLane="0" via=":Great_World_3_0" dir="s" state="M"/>
    <connection from="Huaihai_Rd_M(eastward)" to="Huaihai_Rd_E(eastward)" fromLane="0" toLane="0" via=":Great_World_4_0" dir="s" state="M"/>
    <connection from="Huaihai_Rd_M(eastward)" to="Tibet_Rd_S(northward)" fromLane="0" toLane="0" via=":Great_World_5_0" dir="l" state="m"/>
    <connection from="Huaihai_Rd_M(westward)" to="Urumqi_Rd_S(northward)" fromLane="0" toLane="0" via=":Shanghai_LIbrary_1_0" dir="r" state="M"/>
    <connection from="Nanjing_Rd_E(eastward)" to="Henan_Rd_M(southward)" fromLane="0" toLane="0" via=":Daimaru_1_0" dir="r" state="M"/>
    <connection from="Nanjing_Rd_E(westward)" to="Nanjing_Rd_W(westward)" fromLane="0" toLane="0" via=":People_Square_0_0" dir="s" state="M"/>
    <connection from="Nanjing_Rd_E(westward)" to="Tibet_Rd_M(southward)" fromLane="0" toLane="0" via=":People_Square_1_0" dir="l" state="m"/>
    <connection from="Nanjing_Rd_W(eastward)" to="Tibet_Rd_M(southward)" fromLane="0" toLane="0" via=":People_Square_4_0" dir="r" state="M"/>
    <connection from="Nanjing_Rd_W(eastward)" to="Nanjing_Rd_E(eastward)" fromLane="0" toLane="0" via=":People_Square_5_0" dir="s" state="M"/>
    <connection from="Nanjing_Rd_W(westward)" to="Urumqi_Rd_M(southward)" fromLane="0" toLane="0" via=":Jingan_Temple_0_0" dir="l" state="M"/>
    <connection from="Tibet_Rd_M(northward)" to="Nanjing_Rd_E(eastward)" fromLane="0" toLane="0" via=":People_Square_2_0" dir="r" state="m"/>
    <connection from="Tibet_Rd_M(northward)" to="Nanjing_Rd_W(westward)" fromLane="0" toLane="0" via=":People_Square_3_0" dir="l" state="m"/>
    <connection from="Tibet_Rd_M(southward)" to="Yanan_Rd_W(westward)" fromLane="0" toLane="0" via=":Shanghai_Concert_Hall_0_0" dir="r" state="M"/>
    <connection from="Tibet_Rd_M(southward)" to="Tibet_Rd_S(southward)" fromLane="0" toLane="0" via=":Shanghai_Concert_Hall_1_0" dir="s" state="M"/>
    <connection from="Tibet_Rd_M(southward)" to="Yanan_Rd_E(eastward)" fromLane="0" toLane="0" via=":Shanghai_Concert_Hall_2_0" dir="l" state="m"/>
    <connection from="Tibet_Rd_S(northward)" to="Yanan_Rd_E(eastward)" fromLane="0" toLane="0" via=":Shanghai_Concert_Hall_6_0" dir="r" state="M"/>
    <connection from="Tibet_Rd_S(northward)" to="Tibet_Rd_M(northward)" fromLane="0" toLane="0" via=":Shanghai_Concert_Hall_7_0" dir="s" state="M"/>
    <connection from="Tibet_Rd_S(northward)" to="Yanan_Rd_W(westward)" fromLane="0" toLane="0" via=":Shanghai_Concert_Hall_8_0" dir="l" state="m"/>
    <connection from="Tibet_Rd_S(southward)" to="Huaihai_Rd_M(westward)" fromLane="0" toLane="0" via=":Great_World_0_0" dir="r" state="m"/>
    <connection from="Tibet_Rd_S(southward)" to="Huaihai_Rd_E(eastward)" fromLane="0" toLane="0" via=":Great_World_1_0" dir="l" state="m"/>
    <connection from="Urumqi_Rd_M(northward)" to="Nanjing_Rd_W(eastward)" fromLane="0" toLane="0" via=":Jingan_Temple_1_0" dir="r" state="M"/>
    <connection from="Urumqi_Rd_M(southward)" to="Urumqi_Rd_S(southward)" fromLane="0" toLane="0" via=":Huashan_Hospital_0_0" dir="s" state="M"/>
    <connection from="Urumqi_Rd_M(southward)" to="Yanan_Rd_W(eastward)" fromLane="0" toLane="0" via=":Huashan_Hospital_1_0" dir="l" state="m"/>